Version 4
SHEET 1 1304 680
WIRE 688 -80 288 -80
WIRE 1184 -80 768 -80
WIRE 864 -16 544 -16
WIRE 288 0 288 -80
WIRE 400 0 288 0
WIRE 544 0 544 -16
WIRE 544 0 464 0
WIRE 960 0 928 0
WIRE 1056 0 960 0
WIRE 864 16 816 16
WIRE 288 112 288 0
WIRE 288 112 256 112
WIRE 320 112 288 112
WIRE 448 112 400 112
WIRE 544 112 544 0
WIRE 544 112 448 112
WIRE 576 112 544 112
WIRE 688 112 656 112
WIRE 720 112 688 112
WIRE 816 112 816 16
WIRE 816 112 784 112
WIRE 848 112 816 112
WIRE 960 112 960 0
WIRE 960 112 928 112
WIRE 1008 112 960 112
WIRE 1104 112 1072 112
WIRE 1184 112 1184 -80
WIRE 1184 112 1104 112
WIRE 448 144 448 112
WIRE 544 144 544 112
WIRE 1184 144 1184 112
WIRE 816 208 816 112
WIRE 816 208 784 208
WIRE 688 224 688 112
WIRE 720 224 688 224
WIRE 1104 240 1104 112
WIRE 1104 240 784 240
WIRE 448 256 448 224
WIRE 544 256 544 208
WIRE 1184 256 1184 224
FLAG 1056 0 Vo
IOPIN 1056 0 Out
FLAG 256 112 Vi
IOPIN 256 112 In
FLAG 544 256 0
FLAG 1184 256 0
FLAG 448 256 0
SYMBOL OpAmps\\opamp 896 64 M180
SYMATTR InstName U1
SYMBOL OpAmps\\opamp 752 160 M0
SYMATTR InstName U2
SYMBOL res 672 96 R90
WINDOW 0 0 56 VBottom 2
WINDOW 3 32 56 VTop 2
SYMATTR InstName R3
SYMATTR Value {R}
SYMBOL res 944 96 R90
WINDOW 0 0 56 VBottom 2
WINDOW 3 32 56 VTop 2
SYMATTR InstName R4
SYMATTR Value {R}
SYMBOL cap 1072 96 R90
WINDOW 0 0 32 VBottom 2
WINDOW 3 32 32 VTop 2
SYMATTR InstName R5
SYMATTR Value {R}
SYMBOL cap 784 96 R90
WINDOW 0 0 32 VBottom 2
WINDOW 3 32 32 VTop 2
SYMATTR InstName C2
SYMATTR Value {C}
SYMBOL cap 528 144 R0
SYMATTR InstName C1
SYMATTR Value {(1-a)*C}
SYMBOL res 416 96 R90
WINDOW 0 0 56 VBottom 2
WINDOW 3 32 56 VTop 2
SYMATTR InstName R1
SYMATTR Value {R/b}
SYMBOL cap 464 -16 R90
WINDOW 0 0 32 VBottom 2
WINDOW 3 32 32 VTop 2
SYMATTR InstName C3
SYMATTR Value {a*C}
SYMBOL res 1168 128 R0
SYMATTR InstName R7
SYMATTR Value {R/(1-c)}
SYMBOL res 784 -96 R90
WINDOW 0 0 56 VBottom 2
WINDOW 3 32 56 VTop 2
SYMATTR InstName R6
SYMATTR Value {R/c}
SYMBOL res 432 128 R0
WINDOW 0 -25 28 Left 2
WINDOW 3 -93 62 Left 2
SYMATTR InstName R2
SYMATTR Value {R/(1-b)}
TEXT 80 472 Left 2 !.param wo=2*pi*f
TEXT 72 376 Left 2 !.lib opamp.sub
TEXT 80 440 Left 2 !.param f = 300
TEXT 432 488 Left 2 !.param C=1/(Omega_z*wo)
TEXT 80 504 Left 2 !.ac dec 10k {f/10} {f*10}
TEXT 80 416 Left 2 ;Parametros frecuenciales
TEXT 424 424 Left 2 ;Componentes
TEXT 432 456 Left 2 !.param Omega_z = 1
TEXT 432 520 Left 2 !.param R1=Omega_z R2=(8/9)*Omega_z R=(9/8)*Omega_z
