Version 4
SHEET 1 1304 680
WIRE 688 -80 288 -80
WIRE 1184 -80 768 -80
WIRE 864 -16 544 -16
WIRE 288 0 288 -80
WIRE 384 0 288 0
WIRE 544 0 544 -16
WIRE 544 0 448 0
WIRE 960 0 928 0
WIRE 1056 0 960 0
WIRE 864 16 816 16
WIRE 128 96 112 96
WIRE -192 112 -240 112
WIRE -112 112 -192 112
WIRE 16 112 -48 112
WIRE 112 112 112 96
WIRE 112 112 16 112
WIRE 224 112 192 112
WIRE 288 112 288 0
WIRE 288 112 224 112
WIRE 336 112 288 112
WIRE 448 112 416 112
WIRE 544 112 544 0
WIRE 544 112 448 112
WIRE 576 112 544 112
WIRE 688 112 656 112
WIRE 720 112 688 112
WIRE 816 112 816 16
WIRE 816 112 784 112
WIRE 848 112 816 112
WIRE 960 112 960 0
WIRE 960 112 928 112
WIRE 992 112 960 112
WIRE 1104 112 1072 112
WIRE 1184 112 1184 -80
WIRE 1184 112 1104 112
WIRE -192 128 -192 112
WIRE 128 128 112 128
WIRE 112 160 112 128
WIRE 224 160 224 112
WIRE 224 160 112 160
WIRE 16 176 16 112
WIRE 448 176 448 112
WIRE 544 176 544 112
WIRE 1184 176 1184 112
WIRE 816 208 816 112
WIRE 816 208 784 208
WIRE 688 224 688 112
WIRE 720 224 688 224
WIRE 1104 240 1104 112
WIRE 1104 240 784 240
WIRE -192 288 -192 208
WIRE 16 288 16 256
WIRE 448 288 448 256
WIRE 544 288 544 240
WIRE 1184 288 1184 256
FLAG 1056 0 Vo
IOPIN 1056 0 Out
FLAG -240 112 Vi
IOPIN -240 112 In
FLAG 544 288 0
FLAG 1184 288 0
FLAG 448 288 0
FLAG -192 288 0
FLAG 16 288 0
SYMBOL OpAmps\\opamp 896 64 M180
SYMATTR InstName U1
SYMBOL OpAmps\\opamp 752 160 M0
SYMATTR InstName U2
SYMBOL res 672 96 R90
WINDOW 0 0 56 VBottom 2
WINDOW 3 32 56 VTop 2
SYMATTR InstName R3
SYMATTR Value {R}
SYMBOL res 944 96 R90
WINDOW 0 0 56 VBottom 2
WINDOW 3 32 56 VTop 2
SYMATTR InstName R4
SYMATTR Value {R}
SYMBOL cap 784 96 R90
WINDOW 0 0 32 VBottom 2
WINDOW 3 32 32 VTop 2
SYMATTR InstName C2
SYMATTR Value {C}
SYMBOL cap 528 176 R0
SYMATTR InstName C1
SYMATTR Value {(1-a)*C}
SYMBOL res 432 96 R90
WINDOW 0 0 56 VBottom 2
WINDOW 3 32 56 VTop 2
SYMATTR InstName R1
SYMATTR Value {R/b}
SYMBOL cap 448 -16 R90
WINDOW 0 0 32 VBottom 2
WINDOW 3 32 32 VTop 2
SYMATTR InstName C3
SYMATTR Value {a*C}
SYMBOL res 1168 160 R0
SYMATTR InstName R7
SYMATTR Value {R/(1-d)}
SYMBOL res 784 -96 R90
WINDOW 0 0 56 VBottom 2
WINDOW 3 32 56 VTop 2
SYMATTR InstName R6
SYMATTR Value {R/d}
SYMBOL res 432 160 R0
WINDOW 0 -25 28 Left 2
WINDOW 3 -93 62 Left 2
SYMATTR InstName R2
SYMATTR Value {R/(1-b)}
SYMBOL voltage -192 112 R0
WINDOW 123 24 124 Left 2
WINDOW 39 0 0 Left 0
SYMATTR Value2 AC 1 0
SYMATTR InstName V1
SYMATTR Value ""
SYMBOL res 0 160 R0
SYMATTR InstName R8
SYMATTR Value {R}
SYMBOL cap -48 96 R90
WINDOW 0 0 32 VBottom 2
WINDOW 3 32 32 VTop 2
SYMATTR InstName C4
SYMATTR Value {C}
SYMBOL OpAmps\\opamp 160 176 M180
SYMATTR InstName U3
SYMBOL res 1088 96 R90
WINDOW 0 0 56 VBottom 2
WINDOW 3 32 56 VTop 2
SYMATTR InstName R5
SYMATTR Value {R}
TEXT -272 -136 Left 2 !.param wo = 2*pi*f
TEXT 104 184 Left 2 !.lib opamp.sub
TEXT -272 -168 Left 2 !.param f = 300
TEXT -272 16 Left 2 !.param C = 1/(Omega_z*wo)
TEXT -272 -72 Left 2 !.ac dec 10k {f/10} {f*10}
TEXT -272 -192 Left 2 ;Parametros frecuenciales
TEXT -272 -40 Left 2 ;Componentes
TEXT -272 -16 Left 2 !.param Omega_z = 1
TEXT -272 48 Left 2 !.param R = Omega_z
TEXT -272 -104 Left 2 !.param wz = 1/3
TEXT 48 -136 Left 2 ;Transferencia
TEXT 48 -112 Left 2 !.param a = 0.5 * (1+c)
TEXT 48 -80 Left 2 !.param b = d/2
TEXT 48 -48 Left 2 !.param d = wz**2
