Version 4
SHEET 1 880 680
WIRE 160 64 -176 64
WIRE 352 64 240 64
WIRE -176 96 -176 64
WIRE 160 96 96 96
WIRE 272 96 240 96
WIRE 352 112 352 64
WIRE -16 128 -48 128
WIRE 160 128 64 128
WIRE 272 128 240 128
WIRE 160 160 128 160
WIRE 288 160 240 160
WIRE 128 176 128 160
WIRE 128 176 -64 176
WIRE 608 176 608 144
WIRE 736 176 736 144
WIRE 160 192 16 192
WIRE -176 208 -176 176
WIRE -64 208 -64 176
WIRE -64 208 -176 208
WIRE -384 224 -384 192
WIRE 16 224 16 192
WIRE 16 224 -80 224
WIRE 160 224 96 224
WIRE 352 224 352 192
WIRE 352 224 240 224
WIRE -176 256 -176 208
WIRE -80 256 -80 224
WIRE 16 256 16 224
WIRE 160 256 128 256
WIRE 272 256 240 256
WIRE -176 368 -176 320
WIRE -80 368 -80 336
WIRE 16 384 16 336
WIRE 96 384 96 224
WIRE 96 384 16 384
WIRE 128 384 128 256
WIRE 160 384 128 384
WIRE 272 384 272 256
WIRE 272 384 240 384
FLAG 288 160 0
FLAG 272 96 V-
FLAG 272 128 V+
FLAG 608 64 V+
FLAG -80 368 0
FLAG -176 368 0
FLAG 96 96 Vi
FLAG -384 224 0
FLAG -384 112 Vi
FLAG 608 176 0
FLAG 736 176 0
FLAG 736 64 V-
FLAG -48 128 0
FLAG 16 384 V_o_gain
SYMBOL AutoGenerated\\UAF42 192 160 R0
SYMATTR InstName U1
SYMBOL res 256 368 R90
WINDOW 0 0 56 VBottom 2
WINDOW 3 32 56 VTop 2
SYMATTR InstName Rf2
SYMATTR Value 82.108k
SYMBOL res 336 96 R0
SYMATTR InstName Rf1
SYMATTR Value 11.94k
SYMBOL voltage 608 48 R0
WINDOW 123 0 0 Left 0
WINDOW 39 0 0 Left 0
SYMATTR InstName V1
SYMATTR Value 10V
SYMBOL res -96 240 R0
SYMATTR InstName R3
SYMATTR Value 2.2k
SYMBOL res 0 240 R0
SYMATTR InstName R4
SYMATTR Value 1.8k
SYMBOL cap -192 256 R0
SYMATTR InstName C1
SYMATTR Value 10n
SYMBOL res 80 112 R90
WINDOW 0 0 56 VBottom 2
WINDOW 3 32 56 VTop 2
SYMATTR InstName Rq
SYMATTR Value 30.8k
SYMBOL voltage -384 96 R0
WINDOW 123 24 124 Left 2
WINDOW 39 0 0 Left 0
SYMATTR Value2 AC 1 0
SYMATTR InstName V3
SYMATTR Value ""
SYMBOL voltage 736 48 R0
WINDOW 123 0 0 Left 0
WINDOW 39 0 0 Left 0
SYMATTR InstName V2
SYMATTR Value -10V
SYMBOL res -192 80 R0
SYMATTR InstName R1
SYMATTR Value 3.43k
TEXT -376 440 Left 2 !.ac dec 10k 10 100k
