Version 4
SHEET 1 880 680
WIRE 160 64 -176 64
WIRE 352 64 240 64
WIRE -176 80 -176 64
WIRE 160 96 112 96
WIRE 272 96 240 96
WIRE 352 96 352 64
WIRE -16 128 -48 128
WIRE 160 128 64 128
WIRE 272 128 240 128
WIRE 160 160 144 160
WIRE 288 160 240 160
WIRE -176 176 -176 160
WIRE -176 176 -224 176
WIRE 144 176 144 160
WIRE 144 176 -176 176
WIRE 16 192 -80 192
WIRE 160 192 16 192
WIRE 496 192 496 160
WIRE 624 192 624 160
WIRE 160 224 112 224
WIRE 352 224 352 176
WIRE 352 224 240 224
WIRE -80 240 -80 192
WIRE 16 240 16 192
WIRE -176 256 -176 176
WIRE 160 256 144 256
WIRE 256 256 240 256
WIRE 496 256 464 256
WIRE 496 272 496 256
WIRE -176 368 -176 320
WIRE -80 368 -80 320
WIRE 16 384 16 320
WIRE 112 384 112 224
WIRE 112 384 16 384
WIRE 144 384 144 256
WIRE 160 384 144 384
WIRE 256 384 256 256
WIRE 256 384 240 384
WIRE 496 384 496 352
WIRE 16 448 16 384
WIRE 32 448 16 448
FLAG 288 160 0
FLAG 272 96 V-
FLAG 272 128 V+
FLAG 496 80 V+
FLAG -80 368 0
FLAG -176 368 0
FLAG 112 96 Vi
IOPIN 112 96 In
FLAG 496 384 0
FLAG 464 256 Vi
IOPIN 464 256 Out
FLAG 496 192 0
FLAG 624 192 0
FLAG 624 80 V-
FLAG -48 128 0
FLAG -224 176 Vo_RC
IOPIN -224 176 Out
FLAG 32 448 Vo_gain
IOPIN 32 448 Out
SYMBOL AutoGenerated\\UAF42 192 160 R0
SYMATTR InstName U1
SYMBOL res 256 368 R90
WINDOW 0 0 56 VBottom 2
WINDOW 3 32 56 VTop 2
SYMATTR InstName Rf2
SYMATTR Value 82k
SYMBOL res 336 80 R0
SYMATTR InstName Rf1
SYMATTR Value 12k
SYMBOL voltage 496 64 R0
WINDOW 123 0 0 Left 0
WINDOW 39 0 0 Left 0
SYMATTR InstName V1
SYMATTR Value 10V
SYMBOL res -96 224 R0
SYMATTR InstName R3
SYMATTR Value 2.2k
SYMBOL res 0 224 R0
SYMATTR InstName R4
SYMATTR Value 1.8k
SYMBOL cap -192 256 R0
SYMATTR InstName C1
SYMATTR Value 100n
SYMBOL res 80 112 R90
WINDOW 0 0 56 VBottom 2
WINDOW 3 32 56 VTop 2
SYMATTR InstName Rq
SYMATTR Value 30.8k
SYMBOL voltage 496 256 R0
WINDOW 123 24 124 Left 2
WINDOW 39 0 0 Left 0
SYMATTR Value2 AC 1 0
SYMATTR InstName V3
SYMATTR Value ""
SYMBOL voltage 624 64 R0
WINDOW 123 0 0 Left 0
WINDOW 39 0 0 Left 0
SYMATTR InstName V2
SYMATTR Value -10V
SYMBOL res -192 64 R0
SYMATTR InstName R1
SYMATTR Value 343
TEXT 408 424 Left 2 !.ac dec 10k 10 100k
TEXT 448 16 Left 2 ;Alimentación
RECTANGLE Normal 704 224 448 32 2
